@<TRIPOS>MOLECULE
Cp6
62   63    1
SMALL
USER_CHARGES


@<TRIPOS>ATOM
      1 N1         31.1617  -41.2150   39.9442 N.pl3     1 UNK        -0.6324 
      2 C1         30.8792  -40.6708   41.1085 C.cat     1 UNK         0.4201 
      3 N2         29.8778  -39.8130   41.1587 N.pl3     1 UNK        -0.6324 
      4 N3         31.6031  -40.9953   42.1730 N.pl3     1 UNK        -0.2920 
      5 C2         31.5497  -40.3446   43.4877 C.3       1 UNK         0.0473 
      6 C3         32.5143  -40.9668   44.5142 C.3       1 UNK        -0.1283 
      7 C4         33.9795  -41.0958   44.0350 C.3       1 UNK        -0.1510 
      8 C5         34.8963  -41.8085   45.0571 C.3       1 UNK        -0.0513 
      9 N4         35.1128  -41.0336   46.2860 N.am      1 UNK        -0.4147 
     10 C6         35.8613  -39.9278   46.4262 C.2       1 UNK         0.4915 
     11 O1         36.3351  -39.2836   45.4932 O.2       1 UNK        -0.5187 
     12 C7         36.1271  -39.4563   47.8671 C.3       1 UNK         0.0244 
     13 C8         36.3252  -40.6086   48.9081 C.3       1 UNK        -0.0927 
     14 C9         37.7604  -41.1135   49.0254 C.ar      1 UNK        -0.1404 
     15 C10        38.3716  -41.1271   50.2801 C.ar      1 UNK        -0.0841 
     16 C11        39.6751  -41.5883   50.4245 C.ar      1 UNK        -0.1790 
     17 C12        40.3690  -42.0473   49.3137 C.ar      1 UNK         0.2142 
     18 N5         41.6788  -42.4832   49.4625 N.pl3     1 UNK        -0.8820 
     19 C13        39.7586  -42.0687   48.0645 C.ar      1 UNK        -0.1790 
     20 C14        38.4558  -41.6006   47.9145 C.ar      1 UNK        -0.0841 
     21 N6         35.0802  -38.5108   48.2582 N.am      1 UNK        -0.4095 
     22 C15        33.8182  -38.8181   48.6028 C.2       1 UNK         0.5705 
     23 O2         33.3799  -39.9687   48.5264 O.2       1 UNK        -0.5338 
     24 C16        32.9617  -37.7032   49.1692 C.ar      1 UNK        -0.1616 
     25 C17        33.4170  -36.3777   49.2241 C.ar      1 UNK        -0.0958 
     26 C18        32.6241  -35.3719   49.7700 C.ar      1 UNK        -0.1312 
     27 C19        31.3752  -35.6853   50.2942 C.ar      1 UNK        -0.1096 
     28 C20        30.9116  -36.9978   50.2686 C.ar      1 UNK        -0.1312 
     29 C21        31.6958  -37.9987   49.6989 C.ar      1 UNK        -0.0958 
     30 B1         36.2739  -42.3424   44.4754 B         1 UNK         0.2752 
     31 O3         36.8538  -43.3862   45.0985 O.3       1 UNK        -0.5135 
     32 O4         36.5543  -42.2189   43.1648 O.3       1 UNK        -0.5135 
     33 H1         31.8675  -41.9287   39.8552 H         1 UNK         0.3896 
     34 H2         30.7809  -40.7725   39.1097 H         1 UNK         0.3896 
     35 H3         29.5129  -39.4333   40.2889 H         1 UNK         0.3896 
     36 H4         29.4896  -39.5298   42.0436 H         1 UNK         0.3896 
     37 H5         31.7975  -39.3025   43.3054 H         1 UNK         0.0638 
     38 H6         30.5174  -40.3915   43.8367 H         1 UNK         0.0638 
     39 H7         32.4837  -40.3763   45.4323 H         1 UNK         0.0889 
     40 H8         32.1397  -41.9544   44.7880 H         1 UNK         0.0889 
     41 H9         34.0036  -41.6623   43.1035 H         1 UNK         0.0828 
     42 H10        34.3956  -40.1182   43.7878 H         1 UNK         0.0828 
     43 H11        34.3811  -42.7212   45.3621 H         1 UNK         0.1219 
     44 H12        34.6885  -41.3869   47.1325 H         1 UNK         0.3002 
     45 H13        37.0439  -38.8642   47.8369 H         1 UNK         0.0734 
     46 H14        36.0173  -40.2446   49.8902 H         1 UNK         0.0905 
     47 H15        35.6754  -41.4658   48.7325 H         1 UNK         0.0905 
     48 H16        37.8343  -40.7886   51.1496 H         1 UNK         0.1273 
     49 H17        40.1328  -41.5897   51.4005 H         1 UNK         0.1379 
     50 H18        42.1320  -42.1249   50.3025 H         1 UNK         0.3839 
     51 H19        42.2206  -42.4777   48.6086 H         1 UNK         0.3839 
     52 H20        40.2790  -42.4427   47.2022 H         1 UNK         0.1379 
     53 H21        38.0046  -41.6208   46.9334 H         1 UNK         0.1273 
     54 H22        35.2631  -37.5670   47.9353 H         1 UNK         0.3095 
     55 H23        34.4041  -36.1108   48.8741 H         1 UNK         0.1380 
     56 H24        32.9972  -34.3593   49.8103 H         1 UNK         0.1377 
     57 H25        30.7621  -34.9078   50.7281 H         1 UNK         0.1374 
     58 H26        29.9411  -37.2384   50.6791 H         1 UNK         0.1377 
     59 H27        31.3166  -39.0125   49.6845 H         1 UNK         0.1380 
     60 H28        37.5396  -43.7681   44.5308 H         1 UNK         0.4101 
     61 H29        37.2813  -41.5787   43.0503 H         1 UNK         0.4101 
     62 H30        32.2668  -41.7458   42.0589 H         1 UNK         0.2917 
@<TRIPOS>BOND
     1    1    2 ar   
     2    1   33 1    
     3    1   34 1    
     4    2    3 ar   
     5    2    4 ar   
     6    3   35 1    
     7    3   36 1    
     8    4    5 1    
     9    4   62 1    
    10    5    6 1    
    11    5   37 1    
    12    5   38 1    
    13    6    7 1    
    14    6   39 1    
    15    6   40 1    
    16    7    8 1    
    17    7   41 1    
    18    7   42 1    
    19    8    9 1    
    20    8   30 1    
    21    8   43 1    
    22    9   10 am   BACKBONE|DICT|INTERRES
    23    9   44 1    
    24   10   11 2    
    25   10   12 1    
    26   12   13 1    
    27   12   21 1    
    28   12   45 1    
    29   13   14 1    
    30   13   46 1    
    31   13   47 1    
    32   14   20 ar   
    33   14   15 ar   
    34   15   16 ar   
    35   15   48 1    
    36   16   17 ar   
    37   16   49 1    
    38   17   18 1    
    39   17   19 ar   
    40   18   50 1    
    41   18   51 1    
    42   19   20 ar   
    43   19   52 1    
    44   20   53 1    
    45   21   22 am   BACKBONE|DICT|INTERRES
    46   21   54 1    
    47   22   23 2    
    48   22   24 1    
    49   24   29 ar   
    50   24   25 ar   
    51   25   26 ar   
    52   25   55 1    
    53   26   27 ar   
    54   26   56 1    
    55   27   28 ar   
    56   27   57 1    
    57   28   29 ar   
    58   28   58 1    
    59   29   59 1    
    60   30   31 1    
    61   30   32 1    
    62   31   60 1    
    63   32   61 1    
@<TRIPOS>SUBSTRUCTURE
     1 UNK         1 GROUP             0       ****    0 ROOT    
@<TRIPOS>MOLECULE
Cp5
66   67    1
SMALL
USER_CHARGES


@<TRIPOS>ATOM
      1 N1         41.8036  -42.6399   49.5228 N.4       1 UNK        -0.3120 
      2 C1         40.4467  -41.9769   49.7812 C.3       1 UNK         0.0164 
      3 C2         39.4482  -42.2274   48.6665 C.ar      1 UNK        -0.1880 
      4 C3         38.5238  -43.2689   48.7514 C.ar      1 UNK        -0.0875 
      5 C4         37.6225  -43.4802   47.7090 C.ar      1 UNK        -0.1138 
      6 C5         37.6414  -42.6532   46.5810 C.ar      1 UNK        -0.0319 
      7 C6         36.7120  -42.9527   45.4064 C.3       1 UNK        -0.1132 
      8 C7         35.9873  -41.7270   44.7788 C.3       1 UNK         0.0299 
      9 N2         35.1749  -41.0083   45.7517 N.am      1 UNK        -0.4349 
     10 C8         35.4153  -39.7656   46.1831 C.2       1 UNK         0.5726 
     11 O1         36.3608  -39.0861   45.7858 O.2       1 UNK        -0.5175 
     12 C9         34.4660  -39.2525   47.2346 C.ar      1 UNK        -0.1680 
     13 C10        33.0912  -39.5300   47.1741 C.ar      1 UNK        -0.0980 
     14 C11        32.2344  -39.0276   48.1503 C.ar      1 UNK        -0.1273 
     15 C12        32.7414  -38.2320   49.1756 C.ar      1 UNK        -0.1018 
     16 C13        34.1023  -37.9464   49.2438 C.ar      1 UNK        -0.1273 
     17 C14        34.9627  -38.4666   48.2818 C.ar      1 UNK        -0.0980 
     18 C15        35.0685  -42.1917   43.6441 C.2       1 UNK         0.4928 
     19 O2         34.3307  -43.1560   43.8514 O.2       1 UNK        -0.5029 
     20 N3         35.1318  -41.5408   42.4717 N.am      1 UNK        -0.4109 
     21 C16        34.5178  -42.0410   41.2275 C.3       1 UNK        -0.0550 
     22 C17        32.9606  -42.0924   41.2446 C.3       1 UNK        -0.1507 
     23 C18        32.2022  -40.7670   41.4998 C.3       1 UNK        -0.1283 
     24 C19        30.6840  -41.0063   41.6172 C.3       1 UNK         0.0512 
     25 N4         29.8596  -39.8334   41.3042 N.pl3     1 UNK        -0.3007 
     26 C20        29.0501  -39.1713   42.1237 C.cat     1 UNK         0.4216 
     27 N5         28.1530  -38.3532   41.6115 N.pl3     1 UNK        -0.6270 
     28 N6         29.0996  -39.3028   43.4356 N.pl3     1 UNK        -0.6270 
     29 B1         35.1355  -41.2970   39.9699 B         1 UNK         0.2760 
     30 O3         36.3330  -41.6819   39.4667 O.3       1 UNK        -0.5117 
     31 O4         34.3372  -40.5680   39.1658 O.3       1 UNK        -0.5117 
     32 C21        38.5604  -41.6060   46.5095 C.ar      1 UNK        -0.1138 
     33 C22        39.4490  -41.3878   47.5557 C.ar      1 UNK        -0.0875 
     34 H1         42.4719  -42.3361   50.2185 H         1 UNK         0.3208 
     35 H2         41.7183  -43.6442   49.5693 H         1 UNK         0.3208 
     36 H3         40.6826  -40.9159   49.8816 H         1 UNK         0.1319 
     37 H4         40.1183  -42.3634   50.7475 H         1 UNK         0.1319 
     38 H5         38.5075  -43.9175   49.6155 H         1 UNK         0.1420 
     39 H6         36.9239  -44.3012   47.7734 H         1 UNK         0.1563 
     40 H7         35.9834  -43.7028   45.7193 H         1 UNK         0.1053 
     41 H8         37.3135  -43.4352   44.6410 H         1 UNK         0.1053 
     42 H9         36.7301  -41.0584   44.3445 H         1 UNK         0.0725 
     43 H10        34.3430  -41.4762   46.0654 H         1 UNK         0.3101 
     44 H11        32.6738  -40.1192   46.3692 H         1 UNK         0.1348 
     45 H12        31.1757  -39.2396   48.1035 H         1 UNK         0.1422 
     46 H13        32.0731  -37.8272   49.9220 H         1 UNK         0.1449 
     47 H14        34.4918  -37.3142   50.0294 H         1 UNK         0.1422 
     48 H15        36.0180  -38.2269   48.3294 H         1 UNK         0.1348 
     49 H16        35.7006  -40.6993   42.4224 H         1 UNK         0.2958 
     50 H17        34.8435  -43.0783   41.1082 H         1 UNK         0.1249 
     51 H18        32.6427  -42.8245   41.9881 H         1 UNK         0.0830 
     52 H19        32.6273  -42.5036   40.2892 H         1 UNK         0.0830 
     53 H20        32.3969  -40.0724   40.6818 H         1 UNK         0.0905 
     54 H21        32.5745  -40.2737   42.3986 H         1 UNK         0.0905 
     55 H22        30.4040  -41.4256   42.5836 H         1 UNK         0.0637 
     56 H23        30.3650  -41.7320   40.8673 H         1 UNK         0.0637 
     57 H24        28.0984  -38.2503   40.5988 H         1 UNK         0.3899 
     58 H25        27.5778  -37.7743   42.2042 H         1 UNK         0.3899 
     59 H26        28.3413  -38.9667   44.0076 H         1 UNK         0.3899 
     60 H27        29.8986  -39.7465   43.8600 H         1 UNK         0.3899 
     61 H28        36.7524  -42.3867   39.9888 H         1 UNK         0.4113 
     62 H29        34.8259  -40.1164   38.4694 H         1 UNK         0.4113 
     63 H30        38.6010  -40.9638   45.6431 H         1 UNK         0.1563 
     64 H31        40.1594  -40.5788   47.4912 H         1 UNK         0.1420 
     65 H32        29.8531  -39.5378   40.3298 H         1 UNK         0.2935 
     66 H33        42.1529  -42.3917   48.6054 H         1 UNK         0.3208 
@<TRIPOS>BOND
     1    1    2 1    
     2    1   34 1    
     3    1   35 1    
     4    1   66 1    
     5    2    3 1    
     6    2   36 1    
     7    2   37 1    
     8    3   33 ar   
     9    3    4 ar   
    10    4    5 ar   
    11    4   38 1    
    12    5    6 ar   
    13    5   39 1    
    14    6    7 1    
    15    6   32 ar   
    16    7    8 1    
    17    7   40 1    
    18    7   41 1    
    19    8    9 1    
    20    8   18 1    
    21    8   42 1    
    22    9   10 am   BACKBONE|DICT|INTERRES
    23    9   43 1    
    24   10   11 2    
    25   10   12 1    
    26   12   17 ar   
    27   12   13 ar   
    28   13   14 ar   
    29   13   44 1    
    30   14   15 ar   
    31   14   45 1    
    32   15   16 ar   
    33   15   46 1    
    34   16   17 ar   
    35   16   47 1    
    36   17   48 1    
    37   18   19 2    
    38   18   20 am   BACKBONE|DICT|INTERRES
    39   20   21 1    
    40   20   49 1    
    41   21   22 1    
    42   21   29 1    
    43   21   50 1    
    44   22   23 1    
    45   22   51 1    
    46   22   52 1    
    47   23   24 1    
    48   23   53 1    
    49   23   54 1    
    50   24   25 1    
    51   24   55 1    
    52   24   56 1    
    53   25   26 ar   
    54   25   65 1    
    55   26   27 ar   
    56   26   28 ar   
    57   27   57 1    
    58   27   58 1    
    59   28   59 1    
    60   28   60 1    
    61   29   30 1    
    62   29   31 1    
    63   30   61 1    
    64   31   62 1    
    65   32   33 ar   
    66   32   63 1    
    67   33   64 1    
@<TRIPOS>SUBSTRUCTURE
     1 UNK         1 GROUP             0       ****    0 ROOT    
